/*--------------------------------*- C++ -*----------------------------------*\
| =========                 |                                                 |
| \\      /  F ield         | OpenFOAM: The Open Source CFD Toolbox           |
|  \\    /   O peration     | Version:  v2006                                 |
|   \\  /    A nd           | Website:  www.openfoam.com                      |
|    \\/     M anipulation  |                                                 |
\*---------------------------------------------------------------------------*/
FoamFile
{
    version     2.0;
    format      ascii;
    class       volVectorField;
    object      U;
}
// * * * * * * * * * * * * * * * * * * * * * * * * * * * * * * * * * * * * * //

dimensions      [0 1 -1 0 0 0 0];

internalField   uniform (1 0 0);

boundaryField
{
    inlet
    {
        type            wakeBC100Re;
        flowSpeed	1;
        locationY	0;
		locationStreamwise 6;
		D 1;
		streamwise x;
		spanwise y;
        value		$internalField;
    }
	
    outlet
    {
	type            pressureInletOutletVelocity;
        value           uniform (0 0 0);
    }

    top
    {
        //type            symmetryPlane;
	type            zeroGradient;
    }
	
    bottom
    {
        //type            symmetryPlane;
	type            zeroGradient;
    }

    sides
    {
        type            empty;
    }
}

// ************************************************************************* //
